<?xml version="1.0" encoding="UTF-8"?>

<!-- generated on Mon 11 Jan 2021 08:34:00 PM CST by Eclipse SUMO netedit Version 1.8.0
<configuration xmlns:xsi="http://www.w3.org/2001/XMLSchema-instance" xsi:noNamespaceSchemaLocation="http://sumo.dlr.de/xsd/netconvertConfiguration.xsd">

    <input>
        <sumo-net-file value="/home/chenkai/Documents/SMARTS/scenarios/mi_city/map.net.xml"/>
    </input>

    <output>
        <output-file value="/home/chenkai/Documents/SMARTS/scenarios/mi_city/map.net.xml"/>
    </output>

    <processing>
        <geometry.min-radius.fix.railways value="false"/>
        <geometry.max-grade.fix value="false"/>
        <offset.disable-normalization value="true"/>
        <lefthand value="false"/>
    </processing>

    <junctions>
        <no-turnarounds value="true"/>
        <junctions.corner-detail value="5"/>
        <junctions.limit-turn-speed value="5.5"/>
        <rectangular-lane-cut value="false"/>
    </junctions>

    <pedestrian>
        <walkingareas value="false"/>
    </pedestrian>

    <report>
        <aggregate-warnings value="5"/>
    </report>

</configuration>
-->

<net version="1.6" junctionCornerDetail="5" limitTurnSpeed="5.50" xmlns:xsi="http://www.w3.org/2001/XMLSchema-instance" xsi:noNamespaceSchemaLocation="http://sumo.dlr.de/xsd/net_file.xsd">

    <location netOffset="-608756.64,-4825547.99" convBoundary="463.03,239.94,1349.55,1054.96" origBoundary="-79.652869,43.574817,-79.626655,43.588441" projParameter="+proj=utm +zone=17 +ellps=WGS84 +datum=WGS84 +units=m +no_defs"/>

    <type id="highway.bridleway" priority="1" numLanes="1" speed="2.78" allow="pedestrian" oneway="1" width="2.00"/>
    <type id="highway.bus_guideway" priority="1" numLanes="1" speed="27.78" allow="bus" oneway="1"/>
    <type id="highway.cycleway" priority="1" numLanes="1" speed="8.33" allow="bicycle" oneway="1" width="1.00"/>
    <type id="highway.footway" priority="1" numLanes="1" speed="2.78" allow="pedestrian" oneway="1" width="2.00"/>
    <type id="highway.ford" priority="1" numLanes="1" speed="2.78" allow="army" oneway="1"/>
    <type id="highway.living_street" priority="2" numLanes="1" speed="2.78" disallow="tram rail_urban rail rail_electric rail_fast ship" oneway="1"/>
    <type id="highway.motorway" priority="14" numLanes="2" speed="39.44" allow="private emergency authority army vip passenger hov taxi bus coach delivery truck trailer motorcycle evehicle custom1 custom2" oneway="1"/>
    <type id="highway.motorway_link" priority="9" numLanes="1" speed="22.22" allow="private emergency authority army vip passenger hov taxi bus coach delivery truck trailer motorcycle evehicle custom1 custom2" oneway="1"/>
    <type id="highway.path" priority="1" numLanes="1" speed="2.78" allow="pedestrian bicycle" oneway="1" width="2.00"/>
    <type id="highway.pedestrian" priority="1" numLanes="1" speed="2.78" allow="pedestrian" oneway="1" width="2.00"/>
    <type id="highway.primary" priority="12" numLanes="2" speed="27.78" disallow="tram rail_urban rail rail_electric rail_fast ship" oneway="1"/>
    <type id="highway.primary_link" priority="7" numLanes="1" speed="22.22" disallow="tram rail_urban rail rail_electric rail_fast ship" oneway="1"/>
    <type id="highway.raceway" priority="15" numLanes="2" speed="83.33" allow="vip" oneway="1"/>
    <type id="highway.residential" priority="3" numLanes="1" speed="13.89" disallow="tram rail_urban rail rail_electric rail_fast ship" oneway="1"/>
    <type id="highway.secondary" priority="11" numLanes="1" speed="27.78" disallow="tram rail_urban rail rail_electric rail_fast ship" oneway="1"/>
    <type id="highway.secondary_link" priority="6" numLanes="1" speed="22.22" disallow="tram rail_urban rail rail_electric rail_fast ship" oneway="1"/>
    <type id="highway.service" priority="1" numLanes="1" speed="5.56" allow="pedestrian delivery bicycle" oneway="1"/>
    <type id="highway.stairs" priority="1" numLanes="1" speed="1.39" allow="pedestrian" oneway="1" width="2.00"/>
    <type id="highway.step" priority="1" numLanes="1" speed="1.39" allow="pedestrian" oneway="1" width="2.00"/>
    <type id="highway.steps" priority="1" numLanes="1" speed="1.39" allow="pedestrian" oneway="1" width="2.00"/>
    <type id="highway.tertiary" priority="10" numLanes="1" speed="22.22" disallow="tram rail_urban rail rail_electric rail_fast ship" oneway="1"/>
    <type id="highway.tertiary_link" priority="5" numLanes="1" speed="22.22" disallow="tram rail_urban rail rail_electric rail_fast ship" oneway="1"/>
    <type id="highway.track" priority="1" numLanes="1" speed="5.56" allow="pedestrian motorcycle moped bicycle" oneway="1"/>
    <type id="highway.trunk" priority="13" numLanes="2" speed="27.78" disallow="pedestrian bicycle tram rail_urban rail rail_electric rail_fast ship" oneway="1"/>
    <type id="highway.trunk_link" priority="8" numLanes="1" speed="22.22" disallow="pedestrian bicycle tram rail_urban rail rail_electric rail_fast ship" oneway="1"/>
    <type id="highway.unclassified" priority="4" numLanes="1" speed="13.89" disallow="tram rail_urban rail rail_electric rail_fast ship" oneway="1"/>
    <type id="highway.unsurfaced" priority="1" numLanes="1" speed="8.33" disallow="tram rail_urban rail rail_electric rail_fast ship" oneway="1"/>
    <type id="railway.highspeed" priority="21" numLanes="1" speed="69.44" allow="rail_fast" oneway="1"/>
    <type id="railway.light_rail" priority="19" numLanes="1" speed="27.78" allow="rail_urban" oneway="1"/>
    <type id="railway.preserved" priority="16" numLanes="1" speed="27.78" allow="rail" oneway="1"/>
    <type id="railway.rail" priority="20" numLanes="1" speed="44.44" allow="rail" oneway="1"/>
    <type id="railway.subway" priority="18" numLanes="1" speed="27.78" allow="rail_urban" oneway="1"/>
    <type id="railway.tram" priority="17" numLanes="1" speed="13.89" allow="tram" oneway="1"/>

    <edge id=":1028597592_0" function="internal">
        <lane id=":1028597592_0_0" index="0" disallow="tram rail_urban rail rail_electric rail_fast ship" speed="13.89" length="0.19" shape="576.58,505.78 576.53,505.86"/>
        <lane id=":1028597592_0_1" index="1" disallow="tram rail_urban rail rail_electric rail_fast ship" speed="13.89" length="0.19" shape="573.92,504.00 573.77,504.24"/>
    </edge>
    <edge id=":1028597592_2" function="internal">
        <lane id=":1028597592_2_0" index="0" disallow="tram rail_urban rail rail_electric rail_fast ship" speed="3.65" length="2.34" shape="573.92,504.00 572.58,504.56 571.70,504.45"/>
    </edge>
    <edge id=":1028597592_6" function="internal">
        <lane id=":1028597592_6_0" index="0" disallow="tram rail_urban rail rail_electric rail_fast ship" speed="3.65" length="2.34" shape="571.70,504.45 571.25,503.67 571.25,502.23"/>
    </edge>
    <edge id=":1028597592_3" function="internal">
        <lane id=":1028597592_3_0" index="0" disallow="tram rail_urban rail rail_electric rail_fast ship" speed="13.89" length="0.56" shape="568.24,501.01 568.59,500.45"/>
        <lane id=":1028597592_3_1" index="1" disallow="tram rail_urban rail rail_electric rail_fast ship" speed="13.89" length="0.56" shape="571.00,502.62 571.25,502.23"/>
    </edge>
    <edge id=":1028597592_5" function="internal">
        <lane id=":1028597592_5_0" index="0" disallow="tram rail_urban rail rail_electric rail_fast ship" speed="3.65" length="2.34" shape="571.00,502.62 572.30,501.99 573.19,502.05"/>
    </edge>
    <edge id=":1028597592_7" function="internal">
        <lane id=":1028597592_7_0" index="0" disallow="tram rail_urban rail rail_electric rail_fast ship" speed="3.65" length="2.34" shape="573.19,502.05 573.68,502.80 573.77,504.24"/>
    </edge>
    <edge id=":1028597593_0" function="internal">
        <lane id=":1028597593_0_0" index="0" disallow="tram rail_urban rail rail_electric rail_fast ship" speed="13.89" length="8.00" shape="517.96,590.15 512.28,595.75"/>
        <lane id=":1028597593_0_1" index="1" disallow="tram rail_urban rail rail_electric rail_fast ship" speed="13.89" length="8.00" shape="515.73,587.86 510.01,593.49"/>
    </edge>
    <edge id=":1028597593_2" function="internal">
        <lane id=":1028597593_2_0" index="0" disallow="tram rail_urban rail rail_electric rail_fast ship" speed="13.89" length="8.41" shape="507.22,590.71 508.89,588.94 509.41,587.19 509.84,585.34 511.27,583.27"/>
        <lane id=":1028597593_2_1" index="1" disallow="tram rail_urban rail rail_electric rail_fast ship" speed="13.89" length="8.41" shape="507.22,590.71 509.20,589.33 510.52,588.33 511.76,587.24 513.50,585.57"/>
    </edge>
    <edge id=":1028604520_0" function="internal">
        <lane id=":1028604520_0_0" index="0" disallow="tram rail_urban rail rail_electric rail_fast ship" speed="13.89" length="0.32" shape="593.33,479.67 593.16,479.96"/>
        <lane id=":1028604520_0_1" index="1" disallow="tram rail_urban rail rail_electric rail_fast ship" speed="13.89" length="0.32" shape="590.59,478.01 590.43,478.28"/>
    </edge>
    <edge id=":1028604520_2" function="internal">
        <lane id=":1028604520_2_0" index="0" disallow="tram rail_urban rail rail_electric rail_fast ship" speed="3.65" length="2.34" shape="590.59,478.01 589.29,478.62 588.40,478.55"/>
    </edge>
    <edge id=":1028604520_6" function="internal">
        <lane id=":1028604520_6_0" index="0" disallow="tram rail_urban rail rail_electric rail_fast ship" speed="3.65" length="2.34" shape="588.40,478.55 587.92,477.79 587.86,476.35"/>
    </edge>
    <edge id=":1028604520_3" function="internal">
        <lane id=":1028604520_3_0" index="0" disallow="tram rail_urban rail rail_electric rail_fast ship" speed="13.89" length="0.27" shape="584.99,474.91 585.12,474.69"/>
        <lane id=":1028604520_3_1" index="1" disallow="tram rail_urban rail rail_electric rail_fast ship" speed="13.89" length="0.27" shape="587.71,476.60 587.86,476.35"/>
    </edge>
    <edge id=":1028604520_5" function="internal">
        <lane id=":1028604520_5_0" index="0" disallow="tram rail_urban rail rail_electric rail_fast ship" speed="3.65" length="2.34" shape="587.71,476.60 589.02,475.99 589.91,476.08"/>
    </edge>
    <edge id=":1028604520_7" function="internal">
        <lane id=":1028604520_7_0" index="0" disallow="tram rail_urban rail rail_electric rail_fast ship" speed="3.65" length="2.34" shape="589.91,476.08 590.38,476.84 590.43,478.28"/>
    </edge>
    <edge id=":1028719431_0" function="internal">
        <lane id=":1028719431_0_0" index="0" disallow="tram rail_urban rail rail_electric rail_fast ship" speed="13.89" length="1.01" shape="551.41,549.94 551.24,550.25 551.11,550.45 550.98,550.65 550.78,550.94"/>
        <lane id=":1028719431_0_1" index="1" disallow="tram rail_urban rail rail_electric rail_fast ship" speed="13.89" length="1.01" shape="548.61,548.38 548.49,548.60 548.40,548.75 548.31,548.89 548.16,549.10"/>
    </edge>
    <edge id=":1028719431_2" function="internal">
        <lane id=":1028719431_2_0" index="0" disallow="tram rail_urban rail rail_electric rail_fast ship" speed="3.65" length="2.34" shape="548.61,548.38 547.33,549.04 546.44,549.00"/>
    </edge>
    <edge id=":1028719431_5" function="internal">
        <lane id=":1028719431_5_0" index="0" disallow="tram rail_urban rail rail_electric rail_fast ship" speed="3.65" length="2.34" shape="546.44,549.00 545.93,548.26 545.82,546.83"/>
    </edge>
    <edge id=":1028719431_3" function="internal">
        <lane id=":1028719431_3_0" index="0" disallow="tram rail_urban rail rail_electric rail_fast ship" speed="13.89" length="0.34" shape="542.93,545.41 542.96,545.37 542.98,545.34 543.00,545.31 543.02,545.27"/>
        <lane id=":1028719431_3_1" index="1" disallow="tram rail_urban rail rail_electric rail_fast ship" speed="13.89" length="0.34" shape="545.55,547.25 545.63,547.13 545.69,547.05 545.74,546.96 545.82,546.83"/>
    </edge>
    <edge id=":1540047962_0" function="internal">
        <lane id=":1540047962_0_0" index="0" disallow="tram rail_urban rail rail_electric rail_fast ship" speed="13.89" length="0.34" shape="1117.85,639.30 1117.82,639.25 1117.80,639.23 1117.78,639.20 1117.75,639.16"/>
        <lane id=":1540047962_0_1" index="1" disallow="tram rail_urban rail rail_electric rail_fast ship" speed="13.89" length="0.34" shape="1120.55,637.58 1120.47,637.46 1120.41,637.37 1120.35,637.29 1120.26,637.17"/>
    </edge>
    <edge id=":1540047962_2" function="internal">
        <lane id=":1540047962_2_0" index="0" disallow="tram rail_urban rail rail_electric rail_fast ship" speed="3.65" length="2.34" shape="1120.55,637.58 1120.58,636.14 1121.04,635.38"/>
    </edge>
    <edge id=":1540047962_7" function="internal">
        <lane id=":1540047962_7_0" index="0" disallow="tram rail_urban rail rail_electric rail_fast ship" speed="3.65" length="2.34" shape="1121.04,635.38 1121.93,635.28 1123.25,635.87"/>
    </edge>
    <edge id=":1540047962_3" function="internal">
        <lane id=":1540047962_3_0" index="0" disallow="tram rail_urban rail rail_electric rail_fast ship" speed="13.89" length="1.19" shape="1127.77,631.20 1128.05,631.55 1128.24,631.80 1128.41,632.06 1128.66,632.44"/>
        <lane id=":1540047962_3_1" index="1" disallow="tram rail_urban rail rail_electric rail_fast ship" speed="13.89" length="1.19" shape="1125.27,633.19 1125.49,633.47 1125.63,633.66 1125.77,633.86 1125.96,634.16"/>
        <lane id=":1540047962_3_2" index="2" disallow="tram rail_urban rail rail_electric rail_fast ship" speed="13.89" length="1.19" shape="1122.76,635.18 1122.92,635.38 1123.02,635.51 1123.12,635.66 1123.25,635.87"/>
    </edge>
    <edge id=":1540047962_6" function="internal">
        <lane id=":1540047962_6_0" index="0" disallow="tram rail_urban rail rail_electric rail_fast ship" speed="3.65" length="2.34" shape="1122.76,635.18 1122.88,636.62 1122.50,637.43"/>
    </edge>
    <edge id=":1540047962_8" function="internal">
        <lane id=":1540047962_8_0" index="0" disallow="tram rail_urban rail rail_electric rail_fast ship" speed="3.65" length="2.34" shape="1122.50,637.43 1121.63,637.61 1120.26,637.17"/>
    </edge>
    <edge id=":1540047997_0" function="internal">
        <lane id=":1540047997_0_0" index="0" disallow="tram rail_urban rail rail_electric rail_fast ship" speed="13.89" length="0.10" shape="847.72,823.60 847.72,823.60"/>
    </edge>
    <edge id=":1540047997_1" function="internal">
        <lane id=":1540047997_1_0" index="0" disallow="tram rail_urban rail rail_electric rail_fast ship" speed="3.65" length="2.34" shape="847.72,823.60 846.52,822.80 846.12,822.00"/>
    </edge>
    <edge id=":1540047997_4" function="internal">
        <lane id=":1540047997_4_0" index="0" disallow="tram rail_urban rail rail_electric rail_fast ship" speed="3.65" length="2.34" shape="846.12,822.00 846.52,821.20 847.72,820.40"/>
    </edge>
    <edge id=":1540047997_2" function="internal">
        <lane id=":1540047997_2_0" index="0" disallow="tram rail_urban rail rail_electric rail_fast ship" speed="13.89" length="0.10" shape="847.72,820.40 847.72,820.40"/>
    </edge>
    <edge id=":1540047997_3" function="internal">
        <lane id=":1540047997_3_0" index="0" disallow="tram rail_urban rail rail_electric rail_fast ship" speed="3.65" length="2.34" shape="847.72,820.40 848.92,821.20 849.32,822.00"/>
    </edge>
    <edge id=":1540047997_5" function="internal">
        <lane id=":1540047997_5_0" index="0" disallow="tram rail_urban rail rail_electric rail_fast ship" speed="3.65" length="2.34" shape="849.32,822.00 848.92,822.80 847.72,823.60"/>
    </edge>
    <edge id=":1540048049_0" function="internal">
        <lane id=":1540048049_0_0" index="0" disallow="tram rail_urban rail rail_electric rail_fast ship" speed="13.89" length="0.10" shape="707.41,941.02 707.41,941.02"/>
    </edge>
    <edge id=":1540048049_1" function="internal">
        <lane id=":1540048049_1_0" index="0" disallow="tram rail_urban rail rail_electric rail_fast ship" speed="3.65" length="2.34" shape="707.41,941.02 707.30,939.58 707.68,938.77"/>
    </edge>
    <edge id=":1540048049_5" function="internal">
        <lane id=":1540048049_5_0" index="0" disallow="tram rail_urban rail rail_electric rail_fast ship" speed="3.65" length="2.34" shape="707.68,938.77 708.55,938.59 709.93,939.04"/>
    </edge>
    <edge id=":1540048049_2" function="internal">
        <lane id=":1540048049_2_0" index="0" disallow="tram rail_urban rail rail_electric rail_fast ship" speed="13.89" length="0.10" shape="712.44,937.06 712.44,937.06"/>
        <lane id=":1540048049_2_1" index="1" disallow="tram rail_urban rail rail_electric rail_fast ship" speed="13.89" length="0.10" shape="709.93,939.04 709.93,939.04"/>
    </edge>
    <edge id=":1540048049_4" function="internal">
        <lane id=":1540048049_4_0" index="0" disallow="tram rail_urban rail rail_electric rail_fast ship" speed="3.65" length="2.34" shape="709.93,939.04 710.04,940.48 709.66,941.29"/>
    </edge>
    <edge id=":1540048049_6" function="internal">
        <lane id=":1540048049_6_0" index="0" disallow="tram rail_urban rail rail_electric rail_fast ship" speed="3.65" length="2.34" shape="709.66,941.29 708.78,941.47 707.41,941.02"/>
    </edge>
    <edge id=":1545854793_0" function="internal">
        <lane id=":1545854793_0_0" index="0" disallow="tram rail_urban rail rail_electric rail_fast ship" speed="6.57" length="9.06" shape="970.63,468.52 968.67,467.03 966.69,466.51 964.68,466.97 962.65,468.40"/>
    </edge>
    <edge id=":1545854793_1" function="internal">
        <lane id=":1545854793_1_0" index="0" disallow="tram rail_urban rail rail_electric rail_fast ship" speed="13.89" length="14.30" shape="970.63,468.52 960.72,458.16"/>
        <lane id=":1545854793_1_1" index="1" disallow="tram rail_urban rail rail_electric rail_fast ship" speed="13.89" length="14.30" shape="972.91,466.28 963.06,455.98"/>
    </edge>
    <edge id=":1545854793_3" function="internal">
        <lane id=":1545854793_3_0" index="0" disallow="tram rail_urban rail rail_electric rail_fast ship" speed="3.65" length="2.34" shape="972.91,466.28 972.64,464.87 972.93,464.02"/>
    </edge>
    <edge id=":1545854793_13" function="internal">
        <lane id=":1545854793_13_0" index="0" disallow="tram rail_urban rail rail_electric rail_fast ship" speed="3.65" length="2.34" shape="972.93,464.02 973.79,463.75 975.20,464.04"/>
    </edge>
    <edge id=":1545854793_4" function="internal">
        <lane id=":1545854793_4_0" index="0" disallow="tram rail_urban rail rail_electric rail_fast ship" speed="13.89" length="14.10" shape="970.08,449.43 979.77,459.56"/>
        <lane id=":1545854793_4_1" index="1" disallow="tram rail_urban rail rail_electric rail_fast ship" speed="13.89" length="14.10" shape="967.74,451.61 977.48,461.80"/>
        <lane id=":1545854793_4_2" index="2" disallow="tram rail_urban rail rail_electric rail_fast ship" speed="13.89" length="14.10" shape="965.40,453.80 975.20,464.04"/>
    </edge>
    <edge id=":1545854793_7" function="internal">
        <lane id=":1545854793_7_0" index="0" disallow="tram rail_urban rail rail_electric rail_fast ship" speed="8.67" length="5.16" shape="965.40,453.80 967.47,457.11 967.55,458.36"/>
    </edge>
    <edge id=":1545854793_8" function="internal">
        <lane id=":1545854793_8_0" index="0" disallow="tram rail_urban rail rail_electric rail_fast ship" speed="3.65" length="2.34" shape="965.40,453.80 965.64,455.22 965.32,456.06"/>
    </edge>
    <edge id=":1545854793_14" function="internal">
        <lane id=":1545854793_14_0" index="0" disallow="tram rail_urban rail rail_electric rail_fast ship" speed="8.67" length="11.65" shape="967.55,458.36 967.70,460.65 966.09,464.41 962.65,468.40"/>
    </edge>
    <edge id=":1545854793_15" function="internal">
        <lane id=":1545854793_15_0" index="0" disallow="tram rail_urban rail rail_electric rail_fast ship" speed="3.65" length="2.34" shape="965.32,456.06 964.46,456.31 963.06,455.98"/>
    </edge>
    <edge id=":1545854793_9" function="internal">
        <lane id=":1545854793_9_0" index="0" disallow="tram rail_urban rail rail_electric rail_fast ship" speed="6.51" length="9.01" shape="960.46,466.06 962.00,464.14 962.56,462.18 962.13,460.19 960.72,458.16"/>
    </edge>
    <edge id=":1545854793_10" function="internal">
        <lane id=":1545854793_10_0" index="0" disallow="tram rail_urban rail rail_electric rail_fast ship" speed="9.37" length="19.50" shape="960.46,466.06 965.66,461.91 970.24,459.82 974.18,459.78 977.48,461.80"/>
    </edge>
    <edge id=":1545854793_11" function="internal">
        <lane id=":1545854793_11_0" index="0" disallow="tram rail_urban rail rail_electric rail_fast ship" speed="8.72" length="16.76" shape="960.46,466.06 964.64,462.87 968.50,461.47 972.01,461.86 975.20,464.04"/>
    </edge>
    <edge id=":1545854793_12" function="internal">
        <lane id=":1545854793_12_0" index="0" disallow="tram rail_urban rail rail_electric rail_fast ship" speed="3.65" length="2.56" shape="960.46,466.06 961.88,465.83 962.72,466.14 962.78,466.35"/>
    </edge>
    <edge id=":1545854793_16" function="internal">
        <lane id=":1545854793_16_0" index="0" disallow="tram rail_urban rail rail_electric rail_fast ship" speed="3.65" length="2.12" shape="962.78,466.35 962.97,466.99 962.65,468.40"/>
    </edge>
    <edge id=":1545854824_0" function="internal">
        <lane id=":1545854824_0_0" index="0" disallow="tram rail_urban rail rail_electric rail_fast ship" speed="13.89" length="14.63" shape="918.11,649.39 908.15,638.67"/>
    </edge>
    <edge id=":1545854824_1" function="internal">
        <lane id=":1545854824_1_0" index="0" disallow="tram rail_urban rail rail_electric rail_fast ship" speed="7.97" length="6.19" shape="918.11,649.39 915.80,646.22 915.29,644.00"/>
    </edge>
    <edge id=":1545854824_2" function="internal">
        <lane id=":1545854824_2_0" index="0" disallow="tram rail_urban rail rail_electric rail_fast ship" speed="3.65" length="2.34" shape="918.11,649.39 917.84,647.97 918.13,647.12"/>
    </edge>
    <edge id=":1545854824_9" function="internal">
        <lane id=":1545854824_9_0" index="0" disallow="tram rail_urban rail rail_electric rail_fast ship" speed="7.97" length="8.10" shape="915.29,644.00 915.08,643.08 915.95,639.98 918.41,636.91"/>
    </edge>
    <edge id=":1545854824_10" function="internal">
        <lane id=":1545854824_10_0" index="0" disallow="tram rail_urban rail rail_electric rail_fast ship" speed="3.65" length="2.34" shape="918.13,647.12 918.99,646.85 920.40,647.15"/>
    </edge>
    <edge id=":1545854824_3" function="internal">
        <lane id=":1545854824_3_0" index="0" disallow="tram rail_urban rail rail_electric rail_fast ship" speed="6.47" length="9.06" shape="920.59,639.25 919.03,641.19 918.48,643.16 918.93,645.15 920.40,647.15"/>
    </edge>
    <edge id=":1545854824_4" function="internal">
        <lane id=":1545854824_4_0" index="0" disallow="tram rail_urban rail rail_electric rail_fast ship" speed="7.95" length="14.30" shape="920.59,639.25 917.37,641.51 914.22,642.16 911.15,641.22 908.15,638.67"/>
    </edge>
    <edge id=":1545854824_5" function="internal">
        <lane id=":1545854824_5_0" index="0" disallow="tram rail_urban rail rail_electric rail_fast ship" speed="3.65" length="4.67" shape="920.59,639.25 919.17,639.49 918.33,639.18 918.08,638.32 918.41,636.91"/>
    </edge>
    <edge id=":1545854824_6" function="internal">
        <lane id=":1545854824_6_0" index="0" disallow="tram rail_urban rail rail_electric rail_fast ship" speed="6.45" length="9.03" shape="910.54,636.55 912.44,638.16 914.38,638.75 916.37,638.34 918.41,636.91"/>
    </edge>
    <edge id=":1545854824_7" function="internal">
        <lane id=":1545854824_7_0" index="0" disallow="tram rail_urban rail rail_electric rail_fast ship" speed="13.89" length="14.48" shape="910.54,636.55 920.40,647.15"/>
    </edge>
    <edge id=":1545854824_8" function="internal">
        <lane id=":1545854824_8_0" index="0" disallow="tram rail_urban rail rail_electric rail_fast ship" speed="3.65" length="2.34" shape="910.54,636.55 910.74,637.98 910.41,638.81"/>
    </edge>
    <edge id=":1545854824_11" function="internal">
        <lane id=":1545854824_11_0" index="0" disallow="tram rail_urban rail rail_electric rail_fast ship" speed="3.65" length="2.34" shape="910.41,638.81 909.54,639.04 908.15,638.67"/>
    </edge>
    <edge id=":1545854832_0" function="internal">
        <lane id=":1545854832_0_0" index="0" disallow="tram rail_urban rail rail_electric rail_fast ship" speed="13.89" length="14.42" shape="983.33,703.78 972.81,713.64"/>
    </edge>
    <edge id=":1545854832_1" function="internal">
        <lane id=":1545854832_1_0" index="0" disallow="tram rail_urban rail rail_electric rail_fast ship" speed="8.06" length="5.91" shape="983.33,703.78 980.17,706.00 978.17,706.43"/>
    </edge>
    <edge id=":1545854832_2" function="internal">
        <lane id=":1545854832_2_0" index="0" disallow="tram rail_urban rail rail_electric rail_fast ship" speed="3.65" length="2.34" shape="983.33,703.78 981.91,704.02 981.07,703.71"/>
    </edge>
    <edge id=":1545854832_9" function="internal">
        <lane id=":1545854832_9_0" index="0" disallow="tram rail_urban rail rail_electric rail_fast ship" speed="8.06" length="8.32" shape="978.17,706.43 977.03,706.68 973.91,705.82 970.81,703.42"/>
    </edge>
    <edge id=":1545854832_10" function="internal">
        <lane id=":1545854832_10_0" index="0" disallow="tram rail_urban rail rail_electric rail_fast ship" speed="3.65" length="2.34" shape="981.07,703.71 980.81,702.86 981.14,701.45"/>
    </edge>
    <edge id=":1545854832_3" function="internal">
        <lane id=":1545854832_3_0" index="0" disallow="tram rail_urban rail rail_electric rail_fast ship" speed="6.58" length="9.13" shape="973.10,701.19 975.09,702.74 977.10,703.29 979.11,702.87 981.14,701.45"/>
    </edge>
    <edge id=":1545854832_4" function="internal">
        <lane id=":1545854832_4_0" index="0" disallow="tram rail_urban rail rail_electric rail_fast ship" speed="7.96" length="14.27" shape="973.10,701.19 975.41,704.36 976.14,707.49 975.27,710.58 972.81,713.64"/>
    </edge>
    <edge id=":1545854832_5" function="internal">
        <lane id=":1545854832_5_0" index="0" disallow="tram rail_urban rail rail_electric rail_fast ship" speed="3.65" length="4.67" shape="973.10,701.19 973.37,702.61 973.07,703.45 972.22,703.72 970.81,703.42"/>
    </edge>
    <edge id=":1545854832_6" function="internal">
        <lane id=":1545854832_6_0" index="0" disallow="tram rail_urban rail rail_electric rail_fast ship" speed="6.46" length="9.03" shape="970.63,711.30 972.18,709.37 972.73,707.41 972.27,705.43 970.81,703.42"/>
    </edge>
    <edge id=":1545854832_7" function="internal">
        <lane id=":1545854832_7_0" index="0" disallow="tram rail_urban rail rail_electric rail_fast ship" speed="13.89" length="14.41" shape="970.63,711.30 981.14,701.45"/>
    </edge>
    <edge id=":1545854832_8" function="internal">
        <lane id=":1545854832_8_0" index="0" disallow="tram rail_urban rail rail_electric rail_fast ship" speed="3.65" length="2.34" shape="970.63,711.30 972.05,711.07 972.89,711.38"/>
    </edge>
    <edge id=":1545854832_11" function="internal">
        <lane id=":1545854832_11_0" index="0" disallow="tram rail_urban rail rail_electric rail_fast ship" speed="3.65" length="2.34" shape="972.89,711.38 973.14,712.24 972.81,713.64"/>
    </edge>
    <edge id=":1609778610_0" function="internal">
        <lane id=":1609778610_0_0" index="0" disallow="tram rail_urban rail rail_electric rail_fast ship" speed="6.28" length="9.04" shape="841.41,558.49 839.69,556.66 837.83,555.90 835.85,556.22 833.75,557.60"/>
    </edge>
    <edge id=":1609778610_1" function="internal">
        <lane id=":1609778610_1_0" index="0" disallow="tram rail_urban rail rail_electric rail_fast ship" speed="13.89" length="14.59" shape="841.41,558.49 833.12,546.49"/>
    </edge>
    <edge id=":1609778610_2" function="internal">
        <lane id=":1609778610_2_0" index="0" disallow="tram rail_urban rail rail_electric rail_fast ship" speed="7.87" length="6.10" shape="841.41,558.49 839.57,554.87 839.45,552.84"/>
    </edge>
    <edge id=":1609778610_3" function="internal">
        <lane id=":1609778610_3_0" index="0" disallow="tram rail_urban rail rail_electric rail_fast ship" speed="3.65" length="2.34" shape="841.41,558.49 841.38,557.05 841.80,556.26"/>
    </edge>
    <edge id=":1609778610_16" function="internal">
        <lane id=":1609778610_16_0" index="0" disallow="tram rail_urban rail rail_electric rail_fast ship" speed="7.87" length="8.50" shape="839.45,552.84 839.39,551.62 840.88,548.74 844.04,546.23"/>
    </edge>
    <edge id=":1609778610_17" function="internal">
        <lane id=":1609778610_17_0" index="0" disallow="tram rail_urban rail rail_electric rail_fast ship" speed="3.65" length="2.34" shape="841.80,556.26 842.69,556.13 844.03,556.65"/>
    </edge>
    <edge id=":1609778610_4" function="internal">
        <lane id=":1609778610_4_0" index="0" disallow="tram rail_urban rail rail_electric rail_fast ship" speed="6.34" length="9.10" shape="845.65,549.00 843.68,550.56 842.76,552.36 842.87,554.39 844.03,556.65"/>
    </edge>
    <edge id=":1609778610_5" function="internal">
        <lane id=":1609778610_5_0" index="0" disallow="tram rail_urban rail rail_electric rail_fast ship" speed="13.89" length="14.70" shape="845.65,549.00 842.49,550.94 839.48,553.00 836.58,555.21 833.75,557.60"/>
    </edge>
    <edge id=":1609778610_6" function="internal">
        <lane id=":1609778610_6_0" index="0" disallow="tram rail_urban rail rail_electric rail_fast ship" speed="8.25" length="14.35" shape="845.65,549.00 841.95,550.54 838.63,550.63 835.68,549.28 833.12,546.49"/>
    </edge>
    <edge id=":1609778610_7" function="internal">